#toy problem to create the inputs needed to verify the functions derivative

SIMULATION
  SIMULATION_TYPE SUBSURFACE
  PROCESS_MODELS
    SUBSURFACE_FLOW flow
      MODE RICHARDS
    /
  /
END

SUBSURFACE



#=========================== discretization ===================================
GRID
  TYPE UNSTRUCTURED ./../../meshes/quad_128/struct_quad_128.ugi
END
REGION ymin
  FILE ./../../meshes/quad_128/ymin.ss
END
REGION ymax
  FILE ./../../meshes/quad_128/ymax.ss
END



#=========================== EOS ===================================
EOS WATER
  #simplified value for hydraulic conductivity computation
  DENSITY CONSTANT 997.16d0 kg/m^3
  VISCOSITY CONSTANT 8.904156d-4 Pa-s
END

#=========================== material properties ==============================
DATASET permeability
  FILENAME Permeability.h5
END

MATERIAL_PROPERTY mater
  ID 1
  POROSITY 0.3
  TORTUOSITY 0.1
  SATURATION_FUNCTION default
  PERMEABILITY
    DATASET permeability
  /
END


#=========================== characteristic curves ============================
CHARACTERISTIC_CURVES default
  DEFAULT
END


#=========================== output options ===================================
OUTPUT
  FORMAT HDF5
  VARIABLES
    VOLUME
    LIQUID_PRESSURE
    PERMEABILITY_X
    Z_COORDINATE
  /
  NO_PRINT_INITIAL
END


#=========================== times ============================================
TIME
  FINAL_TIME 1e2 y
  INITIAL_TIMESTEP_SIZE 100 y
  MAXIMUM_TIMESTEP_SIZE 1e2 y
END



#=========================== regions ==========================================
REGION all
  COORDINATES
    -1e6 -1e6 -1e6
    1e6 1e6  1e6
  /
END



#=========================== flow conditions ==================================
FLOW_CONDITION initial
  TYPE
    PRESSURE hydrostatic
  /
  DATUM 0 0 10
  GRADIENT 
    PRESSURE -0.01 0. 0.
  /
  PRESSURE 101325.
END



#=========================== condition couplers ===============================
# initial condition
INITIAL_CONDITION
  FLOW_CONDITION initial
  REGION all
END

BOUNDARY_CONDITION west
  FLOW_CONDITION initial
  REGION ymin
END

BOUNDARY_CONDITION east
  FLOW_CONDITION initial
  REGION ymax
END


#=========================== stratigraphy couplers ============================
STRATA
  REGION all
  MATERIAL mater
END

END_SUBSURFACE

